IEEETestCases/123Bus/ieee123_Curr_Elem.Txt

CIRCUIT ELEMENT CURRENTS

(Currents into element from indicated bus)

Power Delivery Elements

  Bus    Phase    Magnitude, A     Angle      (Real)   +j  (Imag)

ELEMENT = "Vsource.SOURCE"
150          1           656.07 /_  158.3 =    -609.72 +j    242.21
150          2           426.02 /_   40.4 =     324.57 +j    275.95
150          3           523.86 /_  -78.5 =     104.74 +j   -513.29
------------
150          0           656.07 /_  -21.7 =     609.72 +j   -242.21
150          0           426.02 /_ -139.6 =    -324.57 +j   -275.95
150          0           523.86 /_  101.5 =    -104.74 +j    513.29

ELEMENT = "Transformer.REG1A"
150          1           656.07 /_  -21.7 =     609.72 +j   -242.21
150          2           426.02 /_ -139.6 =    -324.57 +j   -275.95
150          3           523.86 /_  101.5 =    -104.74 +j    513.29
150          0           180.48 /_  178.5 =    -180.42 +j    4.8772
------------
150R         1           628.57 /_  158.3 =    -584.17 +j    232.06
150R         2           408.16 /_   40.4 =     310.96 +j    264.39
150R         3            501.9 /_  -78.5 =     100.35 +j   -491.77
150R         0           172.92 /_   -1.5 =     172.85 +j   -4.6728

ELEMENT = "Line.L115"
149          1           628.57 /_  -21.7 =     584.17 +j   -232.06
149          2           408.16 /_ -139.6 =    -310.96 +j   -264.39
149          3            501.9 /_  101.5 =    -100.35 +j    491.77
------------
1            1           628.57 /_  158.3 =    -584.17 +j    232.06
1            2           408.17 /_   40.4 =     310.97 +j    264.39
1            3            501.9 /_  -78.5 =     100.35 +j   -491.77

ELEMENT = "Line.L1"
1            2           8.9427 /_ -146.9 =    -7.4896 +j   -4.8865
------------
2            2           8.9429 /_   33.1 =     7.4899 +j    4.8863

ELEMENT = "Line.L2"
1            3           46.576 /_   93.0 =    -2.4398 +j    46.512
------------
3            3           46.577 /_  -87.0 =     2.4393 +j   -46.513

ELEMENT = "Line.L3"
1            1            610.6 /_  -21.5 =     568.11 +j    -223.8
1            2            399.3 /_ -139.5 =    -303.48 +j    -259.5
1            3            455.9 /_  102.4 =    -97.908 +j    445.26
------------
7            1            610.6 /_  158.5 =    -568.11 +j    223.81
7            2            399.3 /_   40.5 =     303.48 +j     259.5
7            3            455.9 /_  -77.6 =     97.907 +j   -445.26

ELEMENT = "Line.L4"
3            3            18.03 /_   93.0 =   -0.94866 +j    18.005
------------
4            3            18.03 /_  -87.0 =    0.94829 +j   -18.005

ELEMENT = "Line.L5"
3            3           28.547 /_   93.0 =    -1.4906 +j    28.508
------------
5            3           28.547 /_  -87.0 =       1.49 +j   -28.508

ELEMENT = "Line.L6"
5            3            19.23 /_   93.0 =    -1.0025 +j    19.204
------------
6            3            19.23 /_  -87.0 =      1.002 +j   -19.204

ELEMENT = "Line.L7"
7            1           601.55 /_  -21.4 =     560.04 +j   -219.58
7            2            399.3 /_ -139.5 =    -303.48 +j    -259.5
7            3            455.9 /_  102.4 =    -97.907 +j    445.26
------------
8            1           601.55 /_  158.6 =    -560.04 +j    219.58
8            2            399.3 /_   40.5 =     303.48 +j     259.5
8            3            455.9 /_  -77.6 =     97.906 +j   -445.26

ELEMENT = "Line.L8"
8            2           8.9688 /_ -147.3 =    -7.5467 +j   -4.8462
------------
12           2            8.969 /_   32.7 =     7.5471 +j     4.846

ELEMENT = "Line.L9"
8            1           46.251 /_  -28.0 =     40.825 +j   -21.737
------------
9            1           46.251 /_  152.0 =    -40.825 +j    21.737

ELEMENT = "Line.L10"
8            1           555.63 /_  -20.9 =     519.22 +j   -197.84
8            2           390.41 /_ -139.3 =    -295.93 +j   -254.65
8            3            455.9 /_  102.4 =    -97.906 +j    445.26
------------
13           1           555.63 /_  159.1 =    -519.22 +j    197.84
13           2           390.41 /_   40.7 =     295.93 +j    254.65
13           3            455.9 /_  -77.6 =     97.905 +j   -445.26

ELEMENT = "Line.L11"
9R           1           28.072 /_  -28.0 =     24.775 +j     -13.2
------------
14           1           28.073 /_  151.9 =    -24.775 +j    13.201

ELEMENT = "Line.L12"
13           3           46.444 /_   92.3 =    -1.8814 +j    46.406
------------
34           3           46.445 /_  -87.7 =     1.8811 +j   -46.406

ELEMENT = "Line.L13"
13           1           228.96 /_  -30.4 =     197.47 +j   -115.88
13           2           155.63 /_ -155.1 =    -141.14 +j   -65.566
13           3           153.35 /_   88.6 =     3.6636 +j     153.3
------------
18           1           228.96 /_  149.6 =    -197.47 +j    115.89
18           2           155.63 /_   24.9 =     141.14 +j    65.565
18           3           153.35 /_  -91.4 =    -3.6657 +j   -153.31

ELEMENT = "Line.L14"
14           1           18.756 /_  -28.1 =     16.552 +j   -8.8208
------------
11           1           18.756 /_  151.9 =    -16.552 +j    8.8213

ELEMENT = "Line.L15"
14           1           9.3168 /_  -28.0 =     8.2228 +j   -4.3805
------------
10           1            9.317 /_  152.0 =    -8.2228 +j     4.381

ELEMENT = "Line.L16"
15           3           18.301 /_   92.3 =    -0.7373 +j    18.286
------------
16           3           18.301 /_  -87.7 =    0.73661 +j   -18.287

ELEMENT = "Line.L17"
15           3           9.1458 /_   92.3 =   -0.37034 +j    9.1383
------------
17           3           9.1461 /_  -87.7 =     0.3697 +j   -9.1386

ELEMENT = "Line.L18"
18           1           37.298 /_  -28.9 =     32.664 +j   -18.006
------------
19           1           37.298 /_  151.1 =    -32.664 +j    18.006

ELEMENT = "Line.L19"
18           1           55.853 /_  -29.0 =     48.834 +j   -27.107
18           2           19.216 /_ -147.8 =    -16.257 +j   -10.245
18           3           55.403 /_   92.2 =     -2.156 +j    55.361
------------
21           1           55.853 /_  151.0 =    -48.834 +j    27.108
21           2           19.216 /_   32.2 =     16.258 +j    10.245
21           3           55.404 /_  -87.8 =     2.1553 +j   -55.362

ELEMENT = "Line.L20"
19           1           18.634 /_  -28.9 =     16.317 +j   -8.9979
------------
20           1           18.634 /_  151.1 =    -16.317 +j    8.9986

ELEMENT = "Line.L21"
21           2           19.218 /_ -147.8 =    -16.261 +j   -10.242
------------
22           2           19.219 /_   32.2 =     16.262 +j    10.241

ELEMENT = "Line.L22"
21           1           55.853 /_  -29.0 =     48.834 +j   -27.108
21           2        0.0046556 /_  -34.8 =  0.0038238 +j -0.0026558
21           3           55.404 /_   92.2 =    -2.1553 +j    55.362
------------
23           1           55.854 /_  151.0 =    -48.834 +j    27.109
23           2        0.0039168 /_  145.2 =  -0.0032171 +j 0.0022342
23           3           55.404 /_  -87.8 =     2.1546 +j   -55.362

ELEMENT = "Line.L23"
23           3            18.46 /_   92.2 =   -0.71588 +j    18.447
------------
24           3           18.461 /_  -87.8 =    0.71488 +j   -18.447

ELEMENT = "Line.L24"
23           1           55.854 /_  -29.0 =     48.834 +j   -27.109
23           2        0.0039168 /_  -34.8 =  0.0032171 +j -0.0022342
23           3           36.944 /_   92.2 =    -1.4387 +j    36.916
------------
25           1           55.854 /_  151.0 =    -48.834 +j     27.11
25           2        0.0031039 /_  145.2 =  -0.0025495 +j 0.0017705
25           3           36.944 /_  -87.8 =      1.438 +j   -36.916

ELEMENT = "Line.L25"
25R          1           18.633 /_  -29.1 =     16.288 +j   -9.0496
25R          3           18.589 /_   92.2 =   -0.72304 +j    18.575
------------
26           1           18.633 /_  150.9 =    -16.288 +j    9.0505
26           3            18.59 /_  -87.8 =    0.72231 +j   -18.576

ELEMENT = "Line.L26"
25           1           37.221 /_  -29.0 =     32.546 +j    -18.06
25           2        0.0031039 /_  -34.8 =  0.0025495 +j -0.0017705
25           3           18.472 /_   92.2 =   -0.71948 +j    18.458
------------
28           1           37.221 /_  151.0 =    -32.546 +j    18.061
28           2        0.0025127 /_  145.2 =  -0.0020639 +j 0.0014332
28           3           18.472 /_  -87.8 =    0.71896 +j   -18.458

ELEMENT = "Line.L27"
26           1           18.633 /_  -29.1 =     16.288 +j   -9.0505
26           3       0.00072535 /_ -142.3 =  -0.00057372 +j -0.00044382
------------
27           1           18.634 /_  150.9 =    -16.288 +j    9.0512
27           3       1.819E-011 /_ -126.9 =  -1.0914E-011 +j -1.4552E-011

ELEMENT = "Line.L28"
26           3            18.59 /_   92.2 =   -0.72174 +j    18.576
------------
31           3            18.59 /_  -87.8 =    0.72133 +j   -18.576

ELEMENT = "Line.L29"
27           1           18.634 /_  -29.1 =     16.288 +j   -9.0512
------------
33           1           18.634 /_  150.9 =    -16.288 +j    9.0522

ELEMENT = "Line.L30"
28           1           18.587 /_  -29.0 =     16.251 +j   -9.0208
28           2        0.0025127 /_  -34.8 =  0.0020639 +j -0.0014332
28           3           18.472 /_   92.2 =   -0.71896 +j    18.458
------------
29           1           18.587 /_  151.0 =    -16.251 +j    9.0219
29           2        0.0016259 /_  145.2 =  -0.0013355 +j 0.00092736
29           3           18.472 /_  -87.8 =    0.71819 +j   -18.458

ELEMENT = "Line.L31"
29           1        0.0018807 /_   83.5 =  0.00021185 +j 0.0018687
29           2        0.0016259 /_  -34.8 =  0.0013355 +j -0.00092736
29           3           18.472 /_   92.2 =   -0.71819 +j    18.458
------------
30           1       0.00068389 /_  -96.5 =  -7.7036E-005 +j -0.00067954
30           2       0.00059123 /_  145.2 =  -0.00048564 +j 0.00033721
30           3           18.473 /_  -87.8 =    0.71728 +j   -18.459

ELEMENT = "Line.L32"
30           1       0.00068389 /_   83.5 =  7.7036E-005 +j 0.00067954
30           2       0.00059123 /_  -34.8 =  0.00048564 +j -0.00033721
30           3       0.00064528 /_ -143.6 =  -0.00051953 +j -0.00038272
------------
250          1      2.3647E-011 /_  -67.4 =  9.0949E-012 +j -2.1828E-011
250          2      1.1647E-011 /_  141.3 =  -9.0949E-012 +j 7.276E-012
250          3       2.058E-011 /_ -135.0 =  -1.4552E-011 +j -1.4552E-011

ELEMENT = "Line.L33"
31           3           9.2968 /_   92.2 =   -0.36039 +j    9.2898
------------
32           3           9.2971 /_  -87.8 =    0.35984 +j   -9.2901

ELEMENT = "Line.L34"
34           3           27.447 /_   92.3 =    -1.1078 +j    27.424
------------
15           3           27.447 /_  -87.7 =     1.1076 +j   -27.425

ELEMENT = "Line.L35"
35           1           18.544 /_  -28.9 =     16.227 +j   -8.9753
35           2           18.373 /_ -147.9 =    -15.566 +j   -9.7603
------------
36           1           18.545 /_  151.0 =    -16.227 +j     8.977
36           2           18.374 /_   32.1 =     15.568 +j    9.7592

ELEMENT = "Line.L36"
35           1           108.65 /_  -34.9 =      89.08 +j   -62.202
35           2            108.5 /_ -155.4 =    -98.658 +j   -45.156
35           3           98.118 /_   86.6 =     5.8229 +j    97.946
------------
40           1           108.65 /_  145.1 =     -89.08 +j    62.203
40           2            108.5 /_   24.6 =     98.659 +j    45.155
40           3           98.119 /_  -93.4 =    -5.8235 +j   -97.946

ELEMENT = "Line.L37"
36           1           18.545 /_  -29.0 =     16.227 +j    -8.977
------------
37           1           18.545 /_  151.0 =    -16.227 +j    8.9776

ELEMENT = "Line.L38"
36           2           18.374 /_ -147.9 =    -15.568 +j   -9.7592
------------
38           2           18.374 /_   32.1 =     15.568 +j    9.7589

ELEMENT = "Line.L39"
38           2            9.057 /_ -147.9 =    -7.6741 +j   -4.8102
------------
39           2           9.0573 /_   32.1 =     7.6747 +j    4.8098

ELEMENT = "Line.L40"
40           3           9.2192 /_   92.2 =   -0.34959 +j    9.2126
------------
41           3           9.2195 /_  -87.8 =      0.349 +j   -9.2129

ELEMENT = "Line.L41"
40           1           108.65 /_  -34.9 =      89.08 +j   -62.203
40           2            108.5 /_ -155.4 =    -98.659 +j   -45.155
40           3           88.948 /_   86.0 =     6.1731 +j    88.733
------------
42           1           108.65 /_  145.1 =    -89.081 +j    62.204
42           2            108.5 /_   24.6 =     98.659 +j    45.155
42           3           88.948 /_  -94.0 =    -6.1738 +j   -88.734

ELEMENT = "Line.L42"
42           2           19.129 /_ -148.0 =    -16.218 +j   -10.143
------------
43           2           19.129 /_   32.0 =     16.219 +j    10.142

ELEMENT = "Line.L43"
42           1           99.329 /_  -35.5 =      80.88 +j    -57.66
42           2           89.568 /_ -157.0 =    -82.441 +j   -35.012
42           3           88.948 /_   86.0 =     6.1738 +j    88.734
------------
44           1            99.33 /_  144.5 =     -80.88 +j    57.661
44           2           89.568 /_   23.0 =     82.442 +j    35.011
44           3           88.948 /_  -94.0 =    -6.1743 +j   -88.734

ELEMENT = "Line.L44"
44           1           18.711 /_  -29.0 =      16.36 +j   -9.0798
------------
45           1           18.711 /_  151.0 =     -16.36 +j    9.0802

ELEMENT = "Line.L45"
44           1           80.765 /_  -37.0 =      64.52 +j   -48.581
44           2           89.568 /_ -157.0 =    -82.442 +j   -35.011
44           3           88.948 /_   86.0 =     6.1743 +j    88.734
------------
47           1           80.766 /_  143.0 =     -64.52 +j    48.582
47           2           89.569 /_   23.0 =     82.443 +j    35.011
47           3           88.949 /_  -94.0 =     -6.175 +j   -88.734

ELEMENT = "Line.L46"
45           1           9.3938 /_  -29.0 =     8.2134 +j   -4.5591
------------
46           1           9.3941 /_  151.0 =    -8.2133 +j    4.5597

ELEMENT = "Line.L47"
47           1           35.483 /_  -38.0 =     27.953 +j   -21.855
47           2           36.715 /_ -157.0 =    -33.794 +j    -14.35
47           3           36.079 /_   83.1 =     4.3464 +j    35.816
------------
48           1           35.483 /_  142.0 =    -27.953 +j    21.856
48           2           36.715 /_   23.0 =     33.795 +j     14.35
48           3           36.079 /_  -96.9 =    -4.3468 +j   -35.816

ELEMENT = "Line.L48"
47           1             27.4 /_  -35.0 =     22.458 +j   -15.698
47           2           34.945 /_ -157.0 =    -32.165 +j   -13.659
47           3           35.142 /_   90.5 =   -0.32592 +j     35.14
------------
49           1             27.4 /_  145.0 =    -22.457 +j    15.699
49           2           34.946 /_   23.0 =     32.166 +j    13.659
49           3           35.142 /_  -89.5 =    0.32516 +j    -35.14

ELEMENT = "Line.L49"
49           1           9.3992 /_  -29.1 =     8.2166 +j   -4.5642
49           2        0.0031825 /_   -9.6 =  0.0031383 +j -0.000529
49           3           18.492 /_   92.0 =   -0.65711 +j     18.48
------------
50           1           9.3993 /_  150.9 =    -8.2164 +j    4.5648
50           2         0.002387 /_  170.4 =  -0.0023537 +j 0.00039678
50           3           18.492 /_  -88.0 =    0.65635 +j    -18.48

ELEMENT = "Line.L50"
50           1           9.3993 /_  -29.1 =     8.2164 +j   -4.5648
50           2         0.002387 /_   -9.6 =  0.0023537 +j -0.00039678
50           3        0.0024175 /_ -159.8 =  -0.0022688 +j -0.00083479
------------
51           1           9.3993 /_  150.9 =    -8.2161 +j    4.5654
51           2        0.0015913 /_  170.4 =  -0.0015692 +j 0.00026453
51           3        0.0016116 /_   20.2 =  0.0015125 +j 0.00055653

ELEMENT = "Line.L51"
51           1        0.0012256 /_   69.7 =  0.00042495 +j 0.0011496
51           2        0.0015913 /_   -9.6 =  0.0015692 +j -0.00026453
51           3        0.0016116 /_ -159.8 =  -0.0015125 +j -0.00055653
------------
151          1      7.4564E-008 /_   -2.5 =  7.4494E-008 +j -3.2369E-009
151          2      1.4819E-008 /_ -121.5 =  -7.738E-009 +j -1.2638E-008
151          3      1.7675E-008 /_  118.6 =  -8.4583E-009 +j 1.552E-008

ELEMENT = "Line.L52"
52           1           314.06 /_  -13.4 =     305.46 +j    -73.01
52           2           244.36 /_ -129.3 =    -154.79 +j   -189.08
52           3           265.01 /_  112.1 =    -99.687 +j    245.55
------------
53           1           314.06 /_  166.6 =    -305.46 +j    73.011
53           2           244.36 /_   50.7 =     154.79 +j    189.08
53           3           265.01 /_  -67.9 =     99.686 +j   -245.55

ELEMENT = "Line.L53"
53           1           296.15 /_  -12.5 =     289.16 +j   -63.988
53           2           244.36 /_ -129.3 =    -154.79 +j   -189.08
53           3           265.01 /_  112.1 =    -99.686 +j    245.55
------------
54           1           296.15 /_  167.5 =    -289.16 +j    63.988
54           2           244.36 /_   50.7 =     154.79 +j    189.08
54           3           265.01 /_  -67.9 =     99.686 +j   -245.55

ELEMENT = "Line.L54"
54           1           9.3004 /_  -29.1 =     8.1297 +j   -4.5173
54           2           9.0095 /_ -148.0 =    -7.6371 +j   -4.7796
54           3        0.0016139 /_ -155.5 =  -0.0014684 +j -0.00066964
------------
55           1           9.3009 /_  150.9 =    -8.1298 +j    4.5182
55           2           9.0098 /_   32.0 =     7.6379 +j    4.7791
55           3       0.00080693 /_   24.5 =  0.00073419 +j 0.00033483

ELEMENT = "Line.L55"
54           1           287.25 /_  -11.9 =     281.03 +j   -59.471
54           2           235.84 /_ -128.6 =    -147.15 +j    -184.3
54           3           265.01 /_  112.1 =    -99.684 +j    245.55
------------
57           1           287.25 /_  168.1 =    -281.03 +j    59.472
57           2           235.84 /_   51.4 =     147.16 +j     184.3
57           3           265.01 /_  -67.9 =     99.683 +j   -245.55

ELEMENT = "Line.L56"
55           1       0.00087824 /_   96.1 =  -9.3351E-005 +j 0.00087326
55           2           9.0098 /_ -148.0 =    -7.6379 +j   -4.7791
55           3       0.00080693 /_ -155.5 =  -0.00073419 +j -0.00033483
------------
56           1      1.0606E-011 /_  121.0 =  -5.457E-012 +j 9.0949E-012
56           2           9.0102 /_   32.0 =     7.6387 +j    4.7785
56           3       1.029E-011 /_ -135.0 =  -7.276E-012 +j -7.276E-012

ELEMENT = "Line.L57"
57           2           18.358 /_ -148.2 =    -15.597 +j   -9.6826
------------
58           2           18.358 /_   31.8 =     15.597 +j    9.6823

ELEMENT = "Line.L58"
57           1           287.25 /_  -11.9 =     281.03 +j   -59.472
57           2           218.63 /_ -127.0 =    -131.56 +j   -174.62
57           3           265.01 /_  112.1 =    -99.683 +j    245.55
------------
60           1           287.25 /_  168.1 =    -281.03 +j    59.474
60           2           218.63 /_   53.0 =     131.56 +j    174.62
60           3           265.01 /_  -67.9 =     99.681 +j   -245.55

ELEMENT = "Line.L59"
58           2            9.041 /_ -148.2 =    -7.6814 +j   -4.7682
------------
59           2           9.0412 /_   31.8 =     7.6818 +j    4.7679

ELEMENT = "Line.L60"
60           1        0.0018483 /_   91.6 =  -5.0432E-005 +j 0.0018476
60           2        0.0017644 /_  -40.0 =  0.0013512 +j -0.0011345
60           3        0.0015857 /_ -148.9 =  -0.0013581 +j -0.00081845
------------
61           1      1.3774E-005 /_   88.3 =  4.144E-007 +j 1.3768E-005
61           2      1.4132E-005 /_  -30.0 =  1.2235E-005 +j -7.0735E-006
61           3      1.4013E-005 /_ -150.7 =  -1.2225E-005 +j -6.8493E-006

ELEMENT = "Line.L61"
60           1           45.368 /_  -41.3 =     34.075 +j   -29.953
60           2           52.268 /_ -150.5 =    -45.499 +j   -25.725
60           3           80.756 /_   92.2 =    -3.1624 +j    80.694
------------
62           1           45.373 /_  138.7 =    -34.074 +j    29.961
62           2           52.272 /_   29.5 =     45.506 +j    25.721
62           3           80.759 /_  -87.8 =     3.1556 +j   -80.698

ELEMENT = "Line.L62"
62           1           45.373 /_  -41.3 =     34.074 +j   -29.961
62           2           52.272 /_ -150.5 =    -45.506 +j   -25.721
62           3           62.054 /_   92.6 =    -2.7612 +j    61.993
------------
63           1           45.376 /_  138.7 =    -34.074 +j    29.966
63           2           52.275 /_   29.5 =     45.511 +j    25.718
63           3           62.056 /_  -87.5 =     2.7565 +j   -61.995

ELEMENT = "Line.L63"
63           1           27.126 /_  -49.2 =     17.736 +j   -20.525
63           2           52.275 /_ -150.5 =    -45.511 +j   -25.718
63           3           62.056 /_   92.5 =    -2.7565 +j    61.995
------------
64           1           27.134 /_  130.8 =    -17.735 +j    20.535
64           2            52.28 /_   29.5 =      45.52 +j    25.712
64           3           62.061 /_  -87.5 =      2.747 +j       -62

ELEMENT = "Line.L64"
64           1           27.134 /_  -49.2 =     17.735 +j   -20.535
64           2           17.995 /_ -157.5 =    -16.622 +j   -6.8928
64           3           62.061 /_   92.5 =     -2.747 +j        62
------------
65           1           27.143 /_  130.8 =    -17.735 +j    20.548
65           2           18.002 /_   22.5 =     16.633 +j    6.8858
65           3           62.066 /_  -87.5 =     2.7355 +j   -62.006

ELEMENT = "Line.L65"
65           1         0.009798 /_   86.5 =  0.0005911 +j 0.0097801
65           2         0.010152 /_  -31.9 =  0.0086233 +j -0.005358
65           3           34.607 /_   92.7 =    -1.6436 +j    34.568
------------
66           1       1.875E-012 /_  -76.0 =  4.5475E-013 +j -1.819E-012
66           2      8.2358E-012 /_ -173.7 =  -8.1855E-012 +j -9.0949E-013
66           3           34.611 /_  -87.3 =     1.6348 +j   -34.573

ELEMENT = "Line.L66"
67           1           54.137 /_  -30.4 =     46.714 +j    -27.36
------------
68           1           54.137 /_  149.6 =    -46.714 +j     27.36

ELEMENT = "Line.L67"
67           1           118.67 /_   22.7 =     109.49 +j    45.775
67           2           126.06 /_ -108.1 =    -39.091 +j   -119.84
67           3           132.87 /_  134.1 =     -92.46 +j    95.418
------------
72           1           118.67 /_ -157.3 =    -109.49 +j   -45.774
72           2           126.06 /_   71.9 =     39.091 +j    119.84
72           3           132.87 /_  -45.9 =     92.459 +j   -95.418

ELEMENT = "Line.L68"
67           1           82.706 /_  -30.6 =     71.224 +j   -42.041
67           2           54.291 /_ -148.8 =    -46.439 +j   -28.125
67           3           64.456 /_   91.0 =    -1.1316 +j    64.446
------------
97           1           82.706 /_  149.4 =    -71.224 +j    42.042
97           2           54.292 /_   31.2 =      46.44 +j    28.124
97           3           64.456 /_  -89.0 =     1.1308 +j   -64.446

ELEMENT = "Line.L69"
68           1           45.134 /_  -30.4 =     38.943 +j   -22.816
------------
69           1           45.135 /_  149.6 =    -38.943 +j    22.817

ELEMENT = "Line.L70"
69           1           27.099 /_  -30.4 =     23.378 +j   -13.704
------------
70           1           27.099 /_  149.6 =    -23.378 +j    13.705

ELEMENT = "Line.L71"
70           1            18.07 /_  -30.4 =     15.588 +j   -9.1395
------------
71           1            18.07 /_  149.6 =    -15.588 +j    9.1401

ELEMENT = "Line.L72"
72           3           55.341 /_   90.9 =   -0.86695 +j    55.334
------------
73           3           55.341 /_  -89.1 =    0.86643 +j   -55.334

ELEMENT = "Line.L73"
72           1           118.67 /_   22.7 =     109.49 +j    45.774
72           2           126.06 /_ -108.1 =    -39.091 +j   -119.84
72           3           99.979 /_  156.4 =    -91.592 +j    40.084
------------
76           1           118.67 /_ -157.3 =    -109.49 +j   -45.773
76           2           126.06 /_   71.9 =     39.092 +j    119.84
76           3           99.978 /_  -23.6 =     91.591 +j   -40.085

ELEMENT = "Line.L74"
73           3           37.303 /_   90.9 =   -0.57509 +j    37.298
------------
74           3           37.303 /_  -89.1 =    0.57443 +j   -37.299

ELEMENT = "Line.L75"
74           3           18.088 /_   90.9 =   -0.27577 +j    18.086
------------
75           3           18.088 /_  -89.1 =    0.27502 +j   -18.086

ELEMENT = "Line.L76"
76           1           77.713 /_   60.5 =     38.261 +j    67.641
76           2           77.286 /_  -57.3 =     41.768 +j   -65.028
76           3           77.431 /_ -177.4 =    -77.351 +j   -3.5225
------------
77           1           77.711 /_ -119.5 =    -38.261 +j    -67.64
77           2           77.285 /_  122.7 =    -41.767 +j    65.027
77           3            77.43 /_    2.6 =      77.35 +j    3.5218

ELEMENT = "Line.L77"
76           1            32.68 /_    5.6 =     32.524 +j    3.1973
76           2           57.688 /_ -129.8 =    -36.962 +j   -44.292
76           3           21.024 /_  157.6 =    -19.436 +j     8.018
------------
86           1            32.68 /_ -174.4 =    -32.523 +j   -3.1953
86           2           57.689 /_   50.2 =     36.964 +j    44.291
86           3           21.023 /_  -22.4 =     19.433 +j    -8.019

ELEMENT = "Line.L78"
77           1           77.711 /_   60.5 =     38.261 +j     67.64
77           2           79.891 /_  -44.2 =     57.249 +j   -55.724
77           3            77.43 /_ -177.4 =     -77.35 +j   -3.5218
------------
78           1           77.711 /_ -119.5 =    -38.261 +j    -67.64
78           2           79.891 /_  135.8 =    -57.249 +j    55.723
78           3            77.43 /_    2.6 =     77.349 +j    3.5216

ELEMENT = "Line.L79"
78           1           19.341 /_  -30.5 =     16.658 +j   -9.8278
78           2       0.00066837 /_  -28.9 =  0.00058526 +j -0.0003228
78           3       0.00079943 /_ -148.3 =  -0.00068031 +j -0.00041984
------------
79           1           19.341 /_  149.5 =    -16.658 +j    9.8285
79           2      6.5585E-012 /_  -33.7 =  5.457E-012 +j -3.638E-012
79           3       1.627E-011 /_  153.4 =  -1.4552E-011 +j 7.276E-012

ELEMENT = "Line.L80"
78           1           80.423 /_   74.4 =     21.603 +j    77.468
78           2            79.89 /_  -44.2 =     57.248 +j   -55.723
78           3           77.429 /_ -177.4 =    -77.349 +j   -3.5212
------------
80           1           80.422 /_ -105.6 =    -21.603 +j   -77.466
80           2           79.889 /_  135.8 =    -57.247 +j    55.722
80           3           77.427 /_    2.6 =     77.347 +j    3.5203

ELEMENT = "Line.L81"
80           1           80.422 /_   74.4 =     21.603 +j    77.466
80           2           86.285 /_  -32.6 =      72.71 +j   -46.458
80           3           77.427 /_ -177.4 =    -77.347 +j   -3.5203
------------
81           1           80.421 /_ -105.6 =    -21.602 +j   -77.465
81           2           86.284 /_  147.4 =     -72.71 +j    46.458
81           3           77.427 /_    2.6 =     77.347 +j      3.52

ELEMENT = "Line.L82"
81           1           80.421 /_   74.4 =     21.602 +j    77.465
81           2           86.284 /_  -32.6 =      72.71 +j   -46.458
81           3           82.885 /_ -158.4 =    -77.056 +j   -30.534
------------
82           1            80.42 /_ -105.6 =    -21.602 +j   -77.465
82           2           86.284 /_  147.4 =    -72.709 +j    46.457
82           3           82.884 /_   21.6 =     77.055 +j    30.534

ELEMENT = "Line.L83"
81           3           27.016 /_   90.6 =   -0.29064 +j    27.014
------------
84           3           27.016 /_  -89.4 =    0.28936 +j   -27.015

ELEMENT = "Line.L84"
82           1           86.805 /_   85.9 =     6.2173 +j    86.582
82           2           86.284 /_  -32.6 =     72.709 +j   -46.457
82           3           82.884 /_ -158.4 =    -77.055 +j   -30.534
------------
83           1           86.804 /_  -94.1 =    -6.2171 +j   -86.581
83           2           86.283 /_  147.4 =    -72.708 +j    46.457
83           3           82.884 /_   21.6 =     77.055 +j    30.533

ELEMENT = "Line.L85"
84           3           18.018 /_   90.6 =   -0.19089 +j    18.017
------------
85           3           18.018 /_  -89.4 =    0.18999 +j   -18.017

ELEMENT = "Line.L86"
86           1            32.68 /_    5.6 =     32.523 +j    3.1953
86           2           49.228 /_ -126.4 =    -29.194 +j   -39.637
86           3           21.023 /_  157.6 =    -19.433 +j     8.019
------------
87           1           32.679 /_ -174.4 =    -32.523 +j   -3.1938
87           2           49.228 /_   53.6 =     29.195 +j    39.636
87           3           21.022 /_  -22.4 =     19.432 +j   -8.0198

ELEMENT = "Line.L87"
87           1               21 /_   36.0 =     16.991 +j    12.341
------------
88           1               21 /_ -144.0 =    -16.991 +j   -12.341

ELEMENT = "Line.L88"
87           1           18.025 /_  -30.5 =     15.532 +j   -9.1472
87           2           33.266 /_ -114.2 =    -13.629 +j   -30.346
87           3           21.022 /_  157.6 =    -19.432 +j    8.0198
------------
89           1           18.025 /_  149.5 =    -15.531 +j    9.1481
89           2           33.266 /_   65.8 =     13.629 +j    30.346
89           3           21.021 /_  -22.4 =     19.431 +j   -8.0203

ELEMENT = "Line.L89"
89           2           21.161 /_  -84.7 =     1.9698 +j   -21.069
------------
90           2           21.161 /_   95.3 =    -1.9694 +j    21.069

ELEMENT = "Line.L90"
89           1           18.025 /_  -30.5 =     15.531 +j   -9.1481
89           2           18.149 /_ -149.3 =    -15.599 +j   -9.2766
89           3           21.021 /_  157.6 =    -19.431 +j    8.0203
------------
91           1           18.026 /_  149.5 =    -15.531 +j    9.1488
91           2           18.149 /_   30.7 =       15.6 +j    9.2763
91           3           21.021 /_  -22.4 =      19.43 +j   -8.0208

ELEMENT = "Line.L91"
91           3            21.02 /_  157.6 =    -19.429 +j    8.0217
------------
92           3           21.019 /_  -22.4 =     19.428 +j    -8.022

ELEMENT = "Line.L92"
91           1           18.026 /_  -30.5 =     15.531 +j   -9.1488
91           2           18.149 /_ -149.3 =      -15.6 +j   -9.2763
91           3        0.0018649 /_ -148.3 =  -0.0015871 +j -0.00097933
------------
93           1           18.026 /_  149.5 =    -15.531 +j    9.1495
93           2            18.15 /_   30.7 =       15.6 +j     9.276
93           3        0.0010657 /_   31.7 =  0.00090691 +j 0.00055962

ELEMENT = "Line.L93"
93           1           18.026 /_  -30.5 =     15.531 +j   -9.1505
------------
94           1           18.026 /_  149.5 =    -15.531 +j    9.1511

ELEMENT = "Line.L94"
93           1       0.00099202 /_   78.2 =  0.00020284 +j 0.00097106
93           2            18.15 /_ -149.3 =      -15.6 +j    -9.276
93           3        0.0010657 /_ -148.3 =  -0.00090691 +j -0.00055962
------------
95           1      1.8991E-011 /_ -106.7 =  -5.457E-012 +j -1.819E-011
95           2            18.15 /_   30.7 =     15.601 +j    9.2756
95           3       7.276E-012 /_    0.0 =  7.276E-012 +j         0

ELEMENT = "Line.L95"
95           2           9.0761 /_ -149.3 =    -7.8015 +j   -4.6381
------------
96           2           9.0763 /_   30.7 =     7.8019 +j    4.6379

ELEMENT = "Line.L96"
97           1           17.998 /_  -30.3 =     15.534 +j   -9.0889
97           2           18.082 /_ -148.7 =    -15.457 +j   -9.3819
97           3            19.26 /_   91.0 =   -0.34165 +j    19.257
------------
98           1           17.998 /_  149.7 =    -15.534 +j    9.0897
98           2           18.082 /_   31.3 =     15.458 +j    9.3815
98           3            19.26 /_  -89.0 =    0.34075 +j   -19.257

ELEMENT = "Line.L97"
98           1        0.0049275 /_   82.8 =  0.00061979 +j 0.0048883
98           2           18.082 /_ -148.7 =    -15.458 +j   -9.3815
98           3            19.26 /_   91.0 =   -0.34075 +j    19.257
------------
99           1        0.0032851 /_  -97.2 =  -0.00041317 +j -0.003259
99           2           18.083 /_   31.2 =      15.46 +j    9.3808
99           3           19.261 /_  -89.0 =    0.33896 +j   -19.258

ELEMENT = "Line.L98"
99           1        0.0032851 /_   82.8 =  0.00041317 +j  0.003259
99           2         0.003608 /_  -24.2 =  0.0032904 +j -0.0014801
99           3           19.261 /_   91.0 =   -0.33896 +j    19.258
------------
100          1        0.0023891 /_  -97.2 =  -0.00030049 +j -0.0023702
100          2         0.002624 /_  155.8 =  -0.002393 +j 0.0010765
100          3           19.261 /_  -89.0 =    0.33799 +j   -19.258

ELEMENT = "Line.L99"
100          1        0.0023891 /_   82.8 =  0.00030049 +j 0.0023702
100          2         0.002624 /_  -24.2 =   0.002393 +j -0.0010765
100          3        0.0028305 /_ -156.9 =  -0.0026027 +j -0.0011124
------------
450          1      5.9117E-012 /_ -112.6 =  -2.2737E-012 +j -5.457E-012
450          2      7.4999E-012 /_   14.0 =  7.276E-012 +j 1.819E-012
450          3      6.5585E-012 /_  123.7 =  -3.638E-012 +j 5.457E-012

ELEMENT = "Line.L118"
197          1           64.709 /_  -30.6 =      55.69 +j   -32.953
197          2            36.21 /_ -148.8 =    -30.982 +j   -18.743
197          3           45.196 /_   91.0 =   -0.78913 +j    45.189
------------
101          1           64.709 /_  149.4 =     -55.69 +j    32.954
101          2           36.211 /_   31.2 =     30.983 +j    18.742
101          3           45.197 /_  -89.0 =    0.78832 +j    -45.19

ELEMENT = "Line.L100"
101          3           45.199 /_   91.0 =   -0.78311 +j    45.192
------------
102          3           45.199 /_  -89.0 =    0.78269 +j   -45.192

ELEMENT = "Line.L101"
101          1           64.709 /_  -30.6 =      55.69 +j   -32.954
101          2           36.211 /_ -148.8 =    -30.983 +j   -18.742
101          3        0.0056628 /_ -156.8 =  -0.0052058 +j -0.0022287
------------
105          1            64.71 /_  149.4 =     -55.69 +j    32.954
105          2           36.211 /_   31.2 =     30.984 +j    18.742
105          3        0.0046895 /_   23.2 =   0.004311 +j 0.0018458

ELEMENT = "Line.L102"
102          3           36.177 /_   91.0 =   -0.62075 +j    36.172
------------
103          3           36.177 /_  -89.0 =    0.62014 +j   -36.172

ELEMENT = "Line.L103"
103          3           18.104 /_   91.0 =   -0.30564 +j    18.101
------------
104          3           18.105 /_  -89.0 =    0.30432 +j   -18.102

ELEMENT = "Line.L104"
105          2           36.214 /_ -148.8 =    -30.988 +j    -18.74
------------
106          2           36.214 /_   31.2 =     30.988 +j     18.74

ELEMENT = "Line.L105"
105          1            64.71 /_  -30.6 =      55.69 +j   -32.954
105          2        0.0043466 /_  -24.2 =  0.0039634 +j -0.0017846
105          3        0.0046895 /_ -156.8 =  -0.004311 +j -0.0018458
------------
108          1            64.71 /_  149.4 =    -55.689 +j    32.955
108          2        0.0032805 /_  155.8 =  -0.0029913 +j 0.0013469
108          3        0.0035392 /_   23.2 =  0.0032535 +j 0.0013931

ELEMENT = "Line.L106"
106          2            18.12 /_ -148.8 =    -15.507 +j   -9.3731
------------
107          2            18.12 /_   31.1 =     15.508 +j    9.3725

ELEMENT = "Line.L107"
108          1           64.711 /_  -30.6 =     55.689 +j   -32.958
------------
109          1           64.712 /_  149.4 =    -55.689 +j    32.959

ELEMENT = "Line.L108"
108          1         0.002979 /_   82.6 =  0.00038111 +j 0.0029545
108          2        0.0032805 /_  -24.2 =  0.0029913 +j -0.0013469
108          3        0.0035392 /_ -156.8 =  -0.0032535 +j -0.0013931
------------
300          1       1.875E-012 /_  -76.0 =  4.5475E-013 +j -1.819E-012
300          2       1.819E-012 /_  180.0 =  -1.819E-012 +j         0
300          3                0 /_    0.0 =          0 +j         0

ELEMENT = "Line.L109"
109          1            46.58 /_  -30.6 =     40.077 +j   -23.738
------------
110          1            46.58 /_  149.4 =    -40.077 +j    23.739

ELEMENT = "Line.L110"
110          1           9.0895 /_  -30.6 =     7.8227 +j   -4.6286
------------
111          1             9.09 /_  149.4 =    -7.8226 +j    4.6298

ELEMENT = "Line.L111"
110          1            37.49 /_  -30.6 =     32.254 +j    -19.11
------------
112          1           37.491 /_  149.4 =    -32.254 +j    19.111

ELEMENT = "Line.L112"
112          1           28.173 /_  -30.7 =     24.236 +j   -14.365
------------
113          1           28.174 /_  149.3 =    -24.236 +j    14.367

ELEMENT = "Line.L113"
113          1           9.1113 /_  -30.7 =     7.8375 +j   -4.6465
------------
114          1           9.1116 /_  149.3 =    -7.8375 +j    4.6471

ELEMENT = "Line.L114"
135          1           135.86 /_  -31.4 =     115.97 +j   -70.773
135          2           136.59 /_ -156.1 =    -124.89 +j   -55.319
135          3           98.118 /_   86.6 =     5.8217 +j    97.945
------------
35           1           135.86 /_  148.6 =    -115.97 +j    70.774
35           2           136.59 /_   23.9 =     124.89 +j    55.319
35           3           98.118 /_  -93.4 =    -5.8229 +j   -97.946

ELEMENT = "Line.L116"
152          1           332.02 /_  -14.3 =     321.75 +j   -81.957
152          2           244.36 /_ -129.3 =    -154.79 +j   -189.08
152          3           265.01 /_  112.1 =    -99.688 +j    245.55
------------
52           1           332.02 /_  165.7 =    -321.75 +j    81.958
52           2           244.36 /_   50.7 =     154.79 +j    189.08
52           3           265.01 /_  -67.9 =     99.687 +j   -245.55

ELEMENT = "Line.L117"
160R         1           228.65 /_   -5.9 =     227.43 +j   -23.625
160R         2           170.91 /_ -120.0 =    -85.528 +j   -147.97
160R         3           185.24 /_  120.3 =    -93.592 +j    159.86
------------
67           1           228.65 /_  174.1 =    -227.43 +j    23.626
67           2           170.91 /_   60.0 =     85.529 +j    147.97
67           3           185.24 /_  -59.7 =     93.591 +j   -159.86

ELEMENT = "Line.SW1"
150R         1           628.57 /_  -21.7 =     584.17 +j   -232.06
150R         2           408.16 /_ -139.6 =    -310.96 +j   -264.39
150R         3            501.9 /_  101.5 =    -100.35 +j    491.77
------------
149          1           628.57 /_  158.3 =    -584.17 +j    232.06
149          2           408.16 /_   40.4 =     310.96 +j    264.39
149          3            501.9 /_  -78.5 =     100.35 +j   -491.77

ELEMENT = "Line.SW2"
13           1           332.02 /_  -14.3 =     321.75 +j   -81.957
13           2           244.36 /_ -129.3 =    -154.79 +j   -189.08
13           3           265.01 /_  112.1 =    -99.688 +j    245.55
------------
152          1           332.02 /_  165.7 =    -321.75 +j    81.957
152          2           244.36 /_   50.7 =     154.79 +j    189.08
152          3           265.01 /_  -67.9 =     99.688 +j   -245.55

ELEMENT = "Line.SW3"
18           1           135.86 /_  -31.4 =     115.97 +j   -70.773
18           2           136.59 /_ -156.1 =    -124.89 +j   -55.319
18           3           98.118 /_   86.6 =     5.8217 +j    97.945
------------
135          1           135.86 /_  148.6 =    -115.97 +j    70.773
135          2           136.59 /_   23.9 =     124.89 +j    55.319
135          3           98.118 /_  -93.4 =    -5.8217 +j   -97.945

ELEMENT = "Line.SW4"
60           1           240.08 /_   -5.9 =      238.8 +j   -24.806
60           2           171.98 /_ -120.0 =    -86.063 +j   -148.89
60           3           191.03 /_  120.3 =    -96.517 +j    164.86
------------
160          1           240.08 /_  174.1 =     -238.8 +j    24.806
160          2           171.98 /_   60.0 =     86.063 +j    148.89
160          3           191.03 /_  -59.7 =     96.517 +j   -164.86

ELEMENT = "Line.SW5"
97           1           64.709 /_  -30.6 =      55.69 +j   -32.953
97           2            36.21 /_ -148.8 =    -30.982 +j   -18.743
97           3           45.196 /_   91.0 =   -0.78913 +j    45.189
------------
197          1           64.709 /_  149.4 =     -55.69 +j    32.953
197          2            36.21 /_   31.2 =     30.982 +j    18.743
197          3           45.196 /_  -89.0 =    0.78913 +j   -45.189

ELEMENT = "Line.SW6"
61           1      1.3802E-005 /_  -94.0 =  -9.5367E-007 +j -1.3769E-005
61           2      1.4229E-005 /_  148.7 =  -1.2159E-005 +j 7.391E-006
61           3      1.4081E-005 /_   28.3 =  1.2398E-005 +j 6.6757E-006
------------
61S          1      1.3802E-005 /_   86.0 =  9.5367E-007 +j 1.3769E-005
61S          2      1.4229E-005 /_  -31.3 =  1.2159E-005 +j -7.391E-006
61S          3      1.4081E-005 /_ -151.7 =  -1.2398E-005 +j -6.6757E-006

ELEMENT = "Line.SW7"
151          1                0 /_    0.0 =          0 +j         0
151          2                0 /_    0.0 =          0 +j         0
151          3                0 /_    0.0 =          0 +j         0
------------
300_OPEN     1                0 /_    0.0 =          0 +j         0
300_OPEN     2                0 /_    0.0 =          0 +j         0
300_OPEN     3                0 /_    0.0 =          0 +j         0

ELEMENT = "Line.SW8"
54           1                0 /_    0.0 =          0 +j         0
------------
94_OPEN      1                0 /_    0.0 =          0 +j         0

ELEMENT = "Transformer.XFM1"
61S          1      1.3768E-005 /_  -93.1 =  -7.3742E-007 +j -1.3749E-005
61S          2      1.4124E-005 /_  148.0 =  -1.1981E-005 +j 7.4799E-006
61S          3      1.4009E-005 /_   27.4 =  1.2438E-005 +j 6.4455E-006
61S          0                0 /_    0.0 =          0 +j         0
------------
610          1      8.1981E-013 /_  123.7 =  -4.5475E-013 +j 6.8212E-013
610          2      8.1981E-013 /_  146.3 =  -6.8212E-013 +j 4.5475E-013
610          3      9.0949E-013 /_    0.0 =  9.0949E-013 +j         0
610          0                0 /_    0.0 =          0 +j         0

ELEMENT = "Capacitor.C83"
83           1           86.804 /_   85.9 =     6.2171 +j    86.581
83           2           86.283 /_  -32.6 =     72.708 +j   -46.457
83           3           86.503 /_ -152.8 =    -76.961 +j   -39.495
------------
83           0           86.804 /_  -94.1 =    -6.2171 +j   -86.581
83           0           86.283 /_  147.4 =    -72.708 +j    46.457
83           0           86.503 /_   27.2 =     76.961 +j    39.495

ELEMENT = "Capacitor.C88A"
88           1           21.534 /_   86.0 =     1.4876 +j    21.483
------------
88           0           21.534 /_  -94.0 =    -1.4876 +j   -21.483

ELEMENT = "Capacitor.C90B"
90           2           21.372 /_  -32.7 =     17.985 +j   -11.545
------------
90           0           21.372 /_  147.3 =    -17.985 +j    11.545

ELEMENT = "Capacitor.C92C"
92           3           21.596 /_ -152.7 =    -19.182 +j    -9.922
------------
92           0           21.596 /_   27.3 =     19.182 +j     9.922

ELEMENT = "Transformer.REG2A"
9            1           27.897 /_  -28.0 =      24.62 +j   -13.118
9            0           27.897 /_  152.0 =     -24.62 +j    13.118
------------
9R           1           28.072 /_  152.0 =    -24.775 +j      13.2
9R           0           28.072 /_  -28.0 =     24.775 +j     -13.2

ELEMENT = "Transformer.REG3A"
25           1           18.633 /_  -29.1 =     16.288 +j   -9.0496
25           0           18.633 /_  150.9 =    -16.288 +j    9.0496
------------
25R          1           18.633 /_  150.9 =    -16.288 +j    9.0496
25R          0           18.633 /_  -29.1 =     16.288 +j   -9.0496

ELEMENT = "Transformer.REG4A"
160          1           240.08 /_   -5.9 =      238.8 +j   -24.806
160          0           240.08 /_  174.1 =     -238.8 +j    24.806
------------
160R         1           228.65 /_  174.1 =    -227.43 +j    23.625
160R         0           228.65 /_   -5.9 =     227.43 +j   -23.625

ELEMENT = "Transformer.REG3C"
25           3           18.473 /_   92.2 =   -0.71852 +j    18.459
25           0           18.473 /_  -87.8 =    0.71852 +j   -18.459
------------
25R          3           18.589 /_  -87.8 =    0.72304 +j   -18.575
25R          0           18.589 /_   92.2 =   -0.72304 +j    18.575

ELEMENT = "Transformer.REG4B"
160          2           171.98 /_ -120.0 =    -86.063 +j   -148.89
160          0           171.98 /_   60.0 =     86.063 +j    148.89
------------
160R         2           170.91 /_   60.0 =     85.528 +j    147.97
160R         0           170.91 /_ -120.0 =    -85.528 +j   -147.97

ELEMENT = "Transformer.REG4C"
160          3           191.03 /_  120.3 =    -96.517 +j    164.86
160          0           191.03 /_  -59.7 =     96.517 +j   -164.86
------------
160R         3           185.24 /_  -59.7 =     93.592 +j   -159.86
160R         0           185.24 /_  120.3 =    -93.592 +j    159.86

= = = = = = = = = = = = = = = = = = =  = = = = = = = = = = =  = =

Power Conversion Elements

  Bus    Phase    Magnitude, A     Angle      (Real)   +j  (Imag)

ELEMENT = "Load.S1A"
1            1           18.055 /_  -27.2 =     16.058 +j   -8.2541
1            0           18.055 /_  152.8 =    -16.058 +j    8.2541

ELEMENT = "Load.S2B"
2            2           8.9429 /_ -146.9 =    -7.4899 +j   -4.8863
2            0           8.9429 /_   33.1 =     7.4899 +j    4.8863

ELEMENT = "Load.S4C"
4            3            18.03 /_   93.0 =   -0.94829 +j    18.005
4            0            18.03 /_  -87.0 =    0.94829 +j   -18.005

ELEMENT = "Load.S5C"
5            3           9.3169 /_   93.0 =   -0.48756 +j    9.3042
5            0           9.3169 /_  -87.0 =    0.48756 +j   -9.3042

ELEMENT = "Load.S6C"
6            3            19.23 /_   93.0 =     -1.002 +j    19.204
6            0            19.23 /_  -87.0 =      1.002 +j   -19.204

ELEMENT = "Load.S7A"
7            1           9.1097 /_  -27.7 =     8.0678 +j   -4.2305
7            0           9.1097 /_  152.3 =    -8.0678 +j    4.2305

ELEMENT = "Load.S9A"
9            1           18.354 /_  -28.0 =     16.204 +j   -8.6193
9            0           18.354 /_  152.0 =    -16.204 +j    8.6193

ELEMENT = "Load.S10A"
10           1           9.3169 /_  -28.0 =     8.2227 +j    -4.381
10           0           9.3169 /_  152.0 =    -8.2227 +j     4.381

ELEMENT = "Load.S11A"
11           1           18.756 /_  -28.1 =     16.552 +j   -8.8213
11           0           18.756 /_  151.9 =    -16.552 +j    8.8213

ELEMENT = "Load.S12B"
12           2            8.969 /_ -147.3 =    -7.5471 +j    -4.846
12           0            8.969 /_   32.7 =     7.5471 +j     4.846

ELEMENT = "Load.S16C"
16           3           18.301 /_   92.3 =   -0.73661 +j    18.287
16           0           18.301 /_  -87.7 =    0.73661 +j   -18.287

ELEMENT = "Load.S17C"
17           3           9.1461 /_   92.3 =    -0.3697 +j    9.1386
17           0           9.1461 /_  -87.7 =     0.3697 +j   -9.1386

ELEMENT = "Load.S19A"
19           1           18.664 /_  -28.9 =     16.346 +j   -9.0083
19           0           18.664 /_  151.1 =    -16.346 +j    9.0083

ELEMENT = "Load.S20A"
20           1           18.634 /_  -28.9 =     16.317 +j   -8.9986
20           0           18.634 /_  151.1 =    -16.317 +j    8.9986

ELEMENT = "Load.S22B"
22           2           19.219 /_ -147.8 =    -16.262 +j   -10.241
22           0           19.219 /_   32.2 =     16.262 +j    10.241

ELEMENT = "Load.S24C"
24           3           18.461 /_   92.2 =   -0.71488 +j    18.447
24           0           18.461 /_  -87.8 =    0.71488 +j   -18.447

ELEMENT = "Load.S28A"
28           1           18.634 /_  -29.0 =     16.294 +j     -9.04
28           0           18.634 /_  151.0 =    -16.294 +j      9.04

ELEMENT = "Load.S29A"
29           1           18.588 /_  -29.0 =     16.251 +j   -9.0237
29           0           18.588 /_  151.0 =    -16.251 +j    9.0237

ELEMENT = "Load.S30C"
30           3           18.473 /_   92.2 =   -0.71676 +j    18.459
30           0           18.473 /_  -87.8 =    0.71676 +j   -18.459

ELEMENT = "Load.S31C"
31           3           9.2934 /_   92.2 =   -0.36095 +j    9.2864
31           0           9.2934 /_  -87.8 =    0.36095 +j   -9.2864

ELEMENT = "Load.S32C"
32           3           9.2971 /_   92.2 =   -0.35984 +j    9.2901
32           0           9.2971 /_  -87.8 =    0.35984 +j   -9.2901

ELEMENT = "Load.S33A"
33           1           18.634 /_  -29.1 =     16.287 +j   -9.0522
33           0           18.634 /_  150.9 =    -16.287 +j    9.0522

ELEMENT = "Load.S34C"
34           3           18.998 /_   92.3 =   -0.77326 +j    18.982
34           0           18.998 /_  -87.7 =    0.77326 +j   -18.982

ELEMENT = "Load.S35A"
35           1           10.671 /_    2.2 =     10.664 +j   0.40336
35           2           10.671 /_ -177.8 =    -10.664 +j  -0.40336

ELEMENT = "Load.S37A"
37           1           18.545 /_  -29.0 =     16.227 +j   -8.9776
37           0           18.545 /_  151.0 =    -16.227 +j    8.9776

ELEMENT = "Load.S38B"
38           2           9.3169 /_ -147.9 =     -7.894 +j   -4.9487
38           0           9.3169 /_   32.1 =      7.894 +j    4.9487

ELEMENT = "Load.S39B"
39           2           9.0573 /_ -147.9 =    -7.6747 +j   -4.8098
39           0           9.0573 /_   32.1 =     7.6747 +j    4.8098

ELEMENT = "Load.S41C"
41           3           9.2195 /_   92.2 =     -0.349 +j    9.2129
41           0           9.2195 /_  -87.8 =      0.349 +j   -9.2129

ELEMENT = "Load.S42A"
42           1           9.3749 /_  -29.0 =     8.2003 +j   -4.5435
42           0           9.3749 /_  151.0 =    -8.2003 +j    4.5435

ELEMENT = "Load.S43B"
43           2           19.129 /_ -148.0 =    -16.219 +j   -10.142
43           0           19.129 /_   32.0 =     16.219 +j    10.142

ELEMENT = "Load.S45A"
45           1           9.3169 /_  -29.0 =     8.1464 +j   -4.5212
45           0           9.3169 /_  151.0 =    -8.1464 +j    4.5212

ELEMENT = "Load.S46A"
46           1            9.394 /_  -29.0 =     8.2132 +j   -4.5597
46           0            9.394 /_  151.0 =    -8.2132 +j    4.5597

ELEMENT = "Load.S47"
47           1           17.908 /_  -38.0 =     14.109 +j   -11.029
47           2           17.908 /_ -157.0 =    -16.483 +j   -7.0012
47           3           17.908 /_   83.1 =     2.1545 +j    17.778
47           0          0.33373 /_   49.0 =    0.21914 +j    0.2517

ELEMENT = "Load.S48"
48           1           35.483 /_  -38.0 =     27.953 +j   -21.855
48           2           36.715 /_ -157.0 =    -33.795 +j    -14.35
48           3           36.079 /_   83.1 =     4.3468 +j    35.816
48           0           1.5455 /_   14.6 =     1.4956 +j   0.38955

ELEMENT = "Load.S49A"
49           1           18.077 /_  -38.0 =     14.241 +j   -11.134
49           0           18.077 /_  142.0 =    -14.241 +j    11.134

ELEMENT = "Load.S49B"
49           2           34.949 /_ -157.0 =    -32.169 +j   -13.658
49           0           34.949 /_   23.0 =     32.169 +j    13.658

ELEMENT = "Load.S49C"
49           3           16.664 /_   88.9 =    0.33194 +j     16.66
49           0           16.664 /_  -91.1 =   -0.33194 +j    -16.66

ELEMENT = "Load.S50C"
50           3           18.493 /_   92.0 =   -0.65408 +j    18.481
50           0           18.493 /_  -88.0 =    0.65408 +j   -18.481

ELEMENT = "Load.S51A"
51           1           9.3994 /_  -29.1 =     8.2156 +j   -4.5665
51           0           9.3994 /_  150.9 =    -8.2156 +j    4.5665

ELEMENT = "Load.S52A"
52           1           18.583 /_  -28.8 =     16.286 +j   -8.9483
52           0           18.583 /_  151.2 =    -16.286 +j    8.9483

ELEMENT = "Load.S53A"
53           1           18.633 /_  -29.0 =     16.303 +j   -9.0227
53           0           18.633 /_  151.0 =    -16.303 +j    9.0227

ELEMENT = "Load.S55A"
55           1           9.3013 /_  -29.1 =     8.1297 +j    -4.519
55           0           9.3013 /_  150.9 =    -8.1297 +j     4.519

ELEMENT = "Load.S56B"
56           2           9.0102 /_ -148.0 =    -7.6387 +j   -4.7785
56           0           9.0102 /_   32.0 =     7.6387 +j    4.7785

ELEMENT = "Load.S58B"
58           2           9.3169 /_ -148.2 =    -7.9156 +j   -4.9141
58           0           9.3169 /_   31.8 =     7.9156 +j    4.9141

ELEMENT = "Load.S59B"
59           2           9.0412 /_ -148.2 =    -7.6818 +j   -4.7678
59           0           9.0412 /_   31.8 =     7.6818 +j    4.7678

ELEMENT = "Load.S60A"
60           1           9.4214 /_  -30.0 =     8.1559 +j   -4.7164
60           0           9.4214 /_  150.0 =    -8.1559 +j    4.7164

ELEMENT = "Load.S62C"
62           3           18.709 /_   91.2 =    -0.3944 +j    18.705
62           0           18.709 /_  -88.8 =     0.3944 +j   -18.705

ELEMENT = "Load.S63A"
63           1           18.869 /_  -30.0 =     16.337 +j   -9.4414
63           0           18.869 /_  150.0 =    -16.337 +j    9.4414

ELEMENT = "Load.S64B"
64           2           34.485 /_ -146.9 =    -28.898 +j   -18.819
64           0           34.485 /_   33.1 =     28.898 +j    18.819

ELEMENT = "Load.S65A"
65           1           10.294 /_   -7.6 =     10.204 +j   -1.3594
65           2           10.294 /_  172.4 =    -10.204 +j    1.3594

ELEMENT = "Load.S65B"
65           2           10.457 /_ -128.0 =    -6.4385 +j   -8.2397
65           3           10.457 /_   52.0 =     6.4385 +j    8.2397

ELEMENT = "Load.S65C"
65           3           20.622 /_  111.4 =    -7.5302 +j    19.198
65           1           20.622 /_  -68.6 =     7.5302 +j   -19.198

ELEMENT = "Load.S66C"
66           3           34.611 /_   92.7 =    -1.6348 +j    34.572
66           0           34.611 /_  -87.3 =     1.6348 +j   -34.572

ELEMENT = "Load.S68A"
68           1           9.0025 /_  -30.3 =     7.7714 +j   -4.5442
68           0           9.0025 /_  149.7 =    -7.7714 +j    4.5442

ELEMENT = "Load.S69A"
69           1           18.036 /_  -30.3 =     15.564 +j   -9.1129
69           0           18.036 /_  149.7 =    -15.564 +j    9.1129

ELEMENT = "Load.S70A"
70           1           9.0287 /_  -30.4 =     7.7895 +j   -4.5651
70           0           9.0287 /_  149.6 =    -7.7895 +j    4.5651

ELEMENT = "Load.S71A"
71           1            18.07 /_  -30.4 =     15.588 +j   -9.1401
71           0            18.07 /_  149.6 =    -15.588 +j    9.1401

ELEMENT = "Load.S73C"
73           3           18.038 /_   90.9 =   -0.29136 +j    18.036
73           0           18.038 /_  -89.1 =    0.29136 +j   -18.036

ELEMENT = "Load.S74C"
74           3           19.215 /_   90.9 =   -0.29868 +j    19.213
74           0           19.215 /_  -89.1 =    0.29868 +j   -19.213

ELEMENT = "Load.S75C"
75           3           18.088 /_   90.9 =   -0.27504 +j    18.086
75           0           18.088 /_  -89.1 =    0.27504 +j   -18.086

ELEMENT = "Load.S76A"
76           1           31.732 /_  -10.5 =     31.198 +j   -5.7962
76           2           31.732 /_  169.5 =    -31.198 +j    5.7962

ELEMENT = "Load.S76B"
76           2           20.679 /_ -127.9 =      -12.7 +j    -16.32
76           3           20.679 /_   52.1 =       12.7 +j     16.32

ELEMENT = "Load.S76C"
76           3           20.679 /_  111.3 =    -7.5038 +j    19.269
76           1           20.679 /_  -68.7 =     7.5038 +j   -19.269

ELEMENT = "Load.S77B"
77           2           18.063 /_ -149.0 =    -15.482 +j   -9.3033
77           0           18.063 /_   31.0 =     15.482 +j    9.3033

ELEMENT = "Load.S79A"
79           1           19.341 /_  -30.5 =     16.657 +j   -9.8286
79           0           19.341 /_  149.5 =    -16.657 +j    9.8286

ELEMENT = "Load.S80B"
80           2           18.026 /_ -149.1 =    -15.463 +j   -9.2644
80           0           18.026 /_   30.9 =     15.463 +j    9.2644

ELEMENT = "Load.S82A"
82           1           17.883 /_  -30.7 =     15.384 +j   -9.1171
82           0           17.883 /_  149.3 =    -15.384 +j    9.1171

ELEMENT = "Load.S83C"
83           3           8.9623 /_   90.6 =  -0.094051 +j    8.9618
83           0           8.9623 /_  -89.4 =   0.094051 +j   -8.9618

ELEMENT = "Load.S84C"
84           3           8.9985 /_   90.6 =   -0.09848 +j     8.998
84           0           8.9985 /_  -89.4 =    0.09848 +j    -8.998

ELEMENT = "Load.S85C"
85           3           18.018 /_   90.6 =   -0.19001 +j    18.017
85           0           18.018 /_  -89.4 =    0.19001 +j   -18.017

ELEMENT = "Load.S86B"
86           2           9.0569 /_ -149.1 =      -7.77 +j   -4.6535
86           0           9.0569 /_   30.9 =       7.77 +j    4.6535

ELEMENT = "Load.S87B"
87           2           18.128 /_ -149.2 =    -15.567 +j   -9.2899
87           0           18.128 /_   30.8 =     15.567 +j    9.2899

ELEMENT = "Load.S88A"
88           1           17.998 /_  -30.5 =     15.503 +j    -9.142
88           0           17.998 /_  149.5 =    -15.503 +j     9.142

ELEMENT = "Load.S90B"
90           2           18.634 /_ -149.3 =    -16.016 +j   -9.5241
90           0           18.634 /_   30.7 =     16.016 +j    9.5241

ELEMENT = "Load.S92C"
92           3           17.946 /_   90.8 =   -0.24587 +j    17.944
92           0           17.946 /_  -89.2 =    0.24587 +j   -17.944

ELEMENT = "Load.S94A"
94           1           18.026 /_  -30.5 =      15.53 +j   -9.1511
94           0           18.026 /_  149.5 =     -15.53 +j    9.1511

ELEMENT = "Load.S95B"
95           2            9.074 /_ -149.3 =    -7.7996 +j   -4.6373
95           0            9.074 /_   30.7 =     7.7996 +j    4.6373

ELEMENT = "Load.S96B"
96           2           9.0763 /_ -149.3 =    -7.8019 +j   -4.6378
96           0           9.0763 /_   30.7 =     7.8019 +j    4.6378

ELEMENT = "Load.S98A"
98           1           17.999 /_  -30.3 =     15.533 +j   -9.0946
98           0           17.999 /_  149.7 =    -15.533 +j    9.0946

ELEMENT = "Load.S99B"
99           2           18.085 /_ -148.8 =    -15.463 +j   -9.3791
99           0           18.085 /_   31.2 =     15.463 +j    9.3791

ELEMENT = "Load.S100C"
100          3           19.262 /_   91.0 =   -0.33541 +j    19.259
100          0           19.262 /_  -89.0 =    0.33541 +j   -19.259

ELEMENT = "Load.S102C"
102          3            9.022 /_   91.0 =   -0.16196 +j    9.0205
102          0            9.022 /_  -89.0 =    0.16196 +j   -9.0205

ELEMENT = "Load.S103C"
103          3           18.073 /_   91.0 =   -0.31452 +j     18.07
103          0           18.073 /_  -89.0 =    0.31452 +j    -18.07

ELEMENT = "Load.S104C"
104          3           18.105 /_   91.0 =   -0.30434 +j    18.102
104          0           18.105 /_  -89.0 =    0.30434 +j   -18.102

ELEMENT = "Load.S106B"
106          2           18.094 /_ -148.8 =    -15.481 +j   -9.3664
106          0           18.094 /_   31.2 =     15.481 +j    9.3664

ELEMENT = "Load.S107B"
107          2            18.12 /_ -148.9 =    -15.508 +j   -9.3723
107          0            18.12 /_   31.1 =     15.508 +j    9.3723

ELEMENT = "Load.S109A"
109          1           18.131 /_  -30.6 =     15.612 +j    -9.221
109          0           18.131 /_  149.4 =    -15.612 +j     9.221

ELEMENT = "Load.S111A"
111          1           9.0898 /_  -30.6 =     7.8223 +j   -4.6298
111          0           9.0898 /_  149.4 =    -7.8223 +j    4.6298

ELEMENT = "Load.S112A"
112          1           9.3169 /_  -30.6 =      8.018 +j   -4.7453
112          0           9.3169 /_  149.4 =     -8.018 +j    4.7453

ELEMENT = "Load.S113A"
113          1           19.062 /_  -30.7 =     16.398 +j   -9.7201
113          0           19.062 /_  149.3 =    -16.398 +j    9.7201

ELEMENT = "Load.S114A"
114          1           9.1114 /_  -30.7 =     7.8372 +j   -4.6471
...